&HEAD CHID='83f6e00b' TITLE='test_alt: Scenarij 2' FYI='Fajl sgenerirovan Fenix+ 2 2.1.77.5894 dlya FDS6'/
&DUMP DT_RESTART=100/
&TIME T_END=100/
&MISC SUPPRESSION=.False./
ComputationAreas
&MESH IJK=24,20,12 XB=-3,3,-3,2,0,3 MPI_PROCESS=0/
&VENT XB=-3,-3,-3,2,0,3 SURF_ID='OPEN'/
&VENT XB=3,3,-3,2,0,3 SURF_ID='OPEN'/
&VENT XB=-3,3,-3,-3,0,3 SURF_ID='OPEN'/
&VENT XB=-3,3,2,2,0,3 SURF_ID='OPEN'/
&SPEC ID='OXYGEN' LUMPED_COMPONENT_ONLY=.True./
&SPEC ID='NITROGEN' LUMPED_COMPONENT_ONLY=.True./
&SPEC ID='CARBON DIOXIDE' LUMPED_COMPONENT_ONLY=.True./
&SPEC ID='CARBON MONOXIDE' LUMPED_COMPONENT_ONLY=.True./
&SPEC ID='HYDROGEN CHLORIDE' LUMPED_COMPONENT_ONLY=.True./
&SPEC ID='WATER VAPOR' LUMPED_COMPONENT_ONLY=.True./
&SPEC ID='SOOT' LUMPED_COMPONENT_ONLY=.True./
&SPEC ID='Magazin' MW=87.17236/
&SPEC ID='AIR' BACKGROUND=.True. SPEC_ID(1:2)='OXYGEN','NITROGEN' VOLUME_FRACTION(1:2)=1,3.7619/
&SPEC ID='PRODUCTS' SPEC_ID(1:6)='SOOT','CARBON DIOXIDE','CARBON MONOXIDE','HYDROGEN CHLORIDE','WATER VAPOR','NITROGEN' VOLUME_FRACTION(1:6)=0.247960124674236,1.68364798509413,0.133823566499227,0.0549893743825584,6.30479121815213,12.8103905882408/
&REAC FUEL='Magazin' HEAT_OF_COMBUSTION=15800 SPEC_ID_NU(1:3)='Magazin','AIR','PRODUCTS' NU(1:3)=-1,-3.407,1/
Clock
&DEVC ID='CLOCK' FYI='CLOCK' QUANTITY='TIME' XYZ=0,-0.5,1.5/
Elements
Stena 1
&OBST XB=2,2,0,1,0,3 RGB=89,89,89/
&OBST XB=-2,-1.75,1,1,0,3 RGB=89,89,89/
&OBST XB=-1.75,-1.5,1,1,0,3 RGB=89,89,89/
&OBST XB=-1.5,-1.25,1,1,0,3 RGB=89,89,89/
&OBST XB=-1.25,-1,1,1,0,3 RGB=89,89,89/
&OBST XB=-1,-0.75,1,1,0,3 RGB=89,89,89/
&OBST XB=-0.75,-0.5,1,1,0,3 RGB=89,89,89/
&OBST XB=-0.5,-0.25,1,1,0,3 RGB=89,89,89/
&OBST XB=-0.25,0,1,1,0,3 RGB=89,89,89/
&OBST XB=0,0.25,1,1,0,3 RGB=89,89,89/
&OBST XB=0.25,0.5,1,1,0,3 RGB=89,89,89/
&OBST XB=0.5,0.75,1,1,0,3 RGB=89,89,89/
&OBST XB=0.75,1,1,1,0,3 RGB=89,89,89/
&OBST XB=1,1.25,1,1,0,3 RGB=89,89,89/
&OBST XB=1.25,1.5,1,1,0,3 RGB=89,89,89/
&OBST XB=1.5,1.75,1,1,0,3 RGB=89,89,89/
&OBST XB=1.75,2,1,1,0,3 RGB=89,89,89/
&OBST XB=2,2,-1,0,2,3 RGB=89,89,89/
&OBST XB=2,2,-2,-1,0,3 RGB=89,89,89/
&OBST XB=-2,-2,-2,1,0,3 RGB=89,89,89/
&OBST XB=-2,-1.75,-2,-2,0,3 RGB=89,89,89/
&OBST XB=-1.75,-1.5,-2,-2,0,3 RGB=89,89,89/
&OBST XB=-1.5,-1.25,-2,-2,0,3 RGB=89,89,89/
&OBST XB=-1.25,-1,-2,-2,0,3 RGB=89,89,89/
&OBST XB=-1,-0.75,-2,-2,0,3 RGB=89,89,89/
&OBST XB=-0.75,-0.5,-2,-2,0,3 RGB=89,89,89/
&OBST XB=-0.5,-0.25,-2,-2,0,3 RGB=89,89,89/
&OBST XB=-0.25,0,-2,-2,0,3 RGB=89,89,89/
&OBST XB=0,0.25,-2,-2,0,3 RGB=89,89,89/
&OBST XB=0.25,0.5,-2,-2,0,3 RGB=89,89,89/
&OBST XB=0.5,0.75,-2,-2,0,3 RGB=89,89,89/
&OBST XB=0.75,1,-2,-2,0,3 RGB=89,89,89/
&OBST XB=1,1.25,-2,-2,0,3 RGB=89,89,89/
&OBST XB=1.25,1.5,-2,-2,0,3 RGB=89,89,89/
&OBST XB=1.5,1.75,-2,-2,0,3 RGB=89,89,89/
&OBST XB=1.75,2,-2,-2,0,3 RGB=89,89,89/
Tverdoe telo 1
&OBST XB=-1,0,-1,0,0,0.5 RGB=255,182,193/
&DEVC ID='4' FYI='Registrator 1_1' QUANTITY='TEMPERATURE' XYZ=1,-0.5,1.7/
&DEVC ID='5' FYI='Registrator 1_1' QUANTITY='VISIBILITY' XYZ=1,-0.5,1.7/
&DEVC ID='6' FYI='Registrator 1_1' QUANTITY='DENSITY' SPEC_ID='OXYGEN' XYZ=1,-0.5,1.7/
&DEVC ID='7' FYI='Registrator 1_1' QUANTITY='DENSITY' SPEC_ID='CARBON DIOXIDE' XYZ=1,-0.5,1.7/
&DEVC ID='8' FYI='Registrator 1_1' QUANTITY='DENSITY' SPEC_ID='CARBON MONOXIDE' XYZ=1,-0.5,1.7/
&DEVC ID='9' FYI='Registrator 1_1' QUANTITY='DENSITY' SPEC_ID='HYDROGEN CHLORIDE' XYZ=1,-0.5,1.7/
&DEVC ID='10' FYI='Registrator 1_1' QUANTITY='RADIATIVE HEAT FLUX GAS' XYZ=1,-0.5,1.7 ORIENTATION=1,0,0/
&DEVC ID='11' FYI='Registrator 1_1' QUANTITY='RADIATIVE HEAT FLUX GAS' XYZ=1,-0.5,1.7 ORIENTATION=-1,0,0/
&SLCF QUANTITY='TEMPERATURE' PBZ=1.7/
&SLCF QUANTITY='VISIBILITY' PBZ=1.7/
&SLCF QUANTITY='DENSITY' SPEC_ID='OXYGEN' PBZ=1.7/
&SLCF QUANTITY='DENSITY' SPEC_ID='CARBON DIOXIDE' PBZ=1.7/
&SLCF QUANTITY='DENSITY' SPEC_ID='CARBON MONOXIDE' PBZ=1.7/
&SLCF QUANTITY='DENSITY' SPEC_ID='HYDROGEN CHLORIDE' PBZ=1.7/
Ochag pozhara 1 (begin)
&SURF ID='1' FYI='Ochag pozhara 1' HRRPUA=220.41 COLOR='RED'/
&VENT XB=-1,0,-1,0,0.5,0.5 SURF_ID='1' SPREAD_RATE=0.0055 XYZ=-0.375,-0.375,0.5 CTRL_ID='2'/
&CTRL ID='2' FUNCTION_TYPE='CUSTOM' INPUT_ID(1:1)='CLOCK' RAMP_ID='3' LATCH=.False./
&RAMP ID='3' FYI='Ochag pozhara 1' T=-1 F=-1/
&RAMP ID='3' FYI='Ochag pozhara 1' T=1 F=1/
Ochag pozhara 1 (end)
&TAIL /
