&HEAD CHID='83f6e00b_tout' TITLE='test_alt: Scenarij 2' FYI='Fajl sgenerirovan Fenix+ 2 2.1.77.5894 dlya FDS6'/
&DUMP DT_RESTART=100/
&TIME T_END=100/
&MISC SUPPRESSION=.False./
ComputationAreas
&DEVC ID='DEVC_X1Y1_MESH_1' QUANTITY='OPTICAL DENSITY' XYZ=-2.75,-3.00,2.750000, SETPOINT=0.023, TRIP_DIRECTION=1/
&DEVC ID='DEVC_X1Y2_MESH_1' QUANTITY='OPTICAL DENSITY' XYZ=-2.75,-2.75,2.750000, SETPOINT=0.023, TRIP_DIRECTION=1/
&DEVC ID='DEVC_X1Y3_MESH_1' QUANTITY='OPTICAL DENSITY' XYZ=-2.75,-2.50,2.750000, SETPOINT=0.023, TRIP_DIRECTION=1/
&DEVC ID='DEVC_X1Y4_MESH_1' QUANTITY='OPTICAL DENSITY' XYZ=-2.75,-2.25,2.750000, SETPOINT=0.023, TRIP_DIRECTION=1/
&DEVC ID='DEVC_X1Y5_MESH_1' QUANTITY='OPTICAL DENSITY' XYZ=-2.75,-2.00,2.750000, SETPOINT=0.023, TRIP_DIRECTION=1/
&DEVC ID='DEVC_X1Y6_MESH_1' QUANTITY='OPTICAL DENSITY' XYZ=-2.75,-1.75,2.750000, SETPOINT=0.023, TRIP_DIRECTION=1/
&DEVC ID='DEVC_X1Y7_MESH_1' QUANTITY='OPTICAL DENSITY' XYZ=-2.75,-1.50,2.750000, SETPOINT=0.023, TRIP_DIRECTION=1/
&DEVC ID='DEVC_X1Y8_MESH_1' QUANTITY='OPTICAL DENSITY' XYZ=-2.75,-1.25,2.750000, SETPOINT=0.023, TRIP_DIRECTION=1/
&DEVC ID='DEVC_X1Y9_MESH_1' QUANTITY='OPTICAL DENSITY' XYZ=-2.75,-1.00,2.750000, SETPOINT=0.023, TRIP_DIRECTION=1/
&DEVC ID='DEVC_X1Y10_MESH_1' QUANTITY='OPTICAL DENSITY' XYZ=-2.75,-0.75,2.750000, SETPOINT=0.023, TRIP_DIRECTION=1/
&DEVC ID='DEVC_X1Y11_MESH_1' QUANTITY='OPTICAL DENSITY' XYZ=-2.75,-0.50,2.750000, SETPOINT=0.023, TRIP_DIRECTION=1/
&DEVC ID='DEVC_X1Y12_MESH_1' QUANTITY='OPTICAL DENSITY' XYZ=-2.75,-0.25,2.750000, SETPOINT=0.023, TRIP_DIRECTION=1/
&DEVC ID='DEVC_X1Y13_MESH_1' QUANTITY='OPTICAL DENSITY' XYZ=-2.75,0.00,2.750000, SETPOINT=0.023, TRIP_DIRECTION=1/
&DEVC ID='DEVC_X1Y14_MESH_1' QUANTITY='OPTICAL DENSITY' XYZ=-2.75,0.25,2.750000, SETPOINT=0.023, TRIP_DIRECTION=1/
&DEVC ID='DEVC_X1Y15_MESH_1' QUANTITY='OPTICAL DENSITY' XYZ=-2.75,0.50,2.750000, SETPOINT=0.023, TRIP_DIRECTION=1/
&DEVC ID='DEVC_X1Y16_MESH_1' QUANTITY='OPTICAL DENSITY' XYZ=-2.75,0.75,2.750000, SETPOINT=0.023, TRIP_DIRECTION=1/
&DEVC ID='DEVC_X1Y17_MESH_1' QUANTITY='OPTICAL DENSITY' XYZ=-2.75,1.00,2.750000, SETPOINT=0.023, TRIP_DIRECTION=1/
&DEVC ID='DEVC_X1Y18_MESH_1' QUANTITY='OPTICAL DENSITY' XYZ=-2.75,1.25,2.750000, SETPOINT=0.023, TRIP_DIRECTION=1/
&DEVC ID='DEVC_X1Y19_MESH_1' QUANTITY='OPTICAL DENSITY' XYZ=-2.75,1.50,2.750000, SETPOINT=0.023, TRIP_DIRECTION=1/
&DEVC ID='DEVC_X1Y20_MESH_1' QUANTITY='OPTICAL DENSITY' XYZ=-2.75,1.75,2.750000, SETPOINT=0.023, TRIP_DIRECTION=1/
&DEVC ID='DEVC_X2Y1_MESH_1' QUANTITY='OPTICAL DENSITY' XYZ=-2.50,-3.00,2.750000, SETPOINT=0.023, TRIP_DIRECTION=1/
&DEVC ID='DEVC_X2Y2_MESH_1' QUANTITY='OPTICAL DENSITY' XYZ=-2.50,-2.75,2.750000, SETPOINT=0.023, TRIP_DIRECTION=1/
&DEVC ID='DEVC_X2Y3_MESH_1' QUANTITY='OPTICAL DENSITY' XYZ=-2.50,-2.50,2.750000, SETPOINT=0.023, TRIP_DIRECTION=1/
&DEVC ID='DEVC_X2Y4_MESH_1' QUANTITY='OPTICAL DENSITY' XYZ=-2.50,-2.25,2.750000, SETPOINT=0.023, TRIP_DIRECTION=1/
&DEVC ID='DEVC_X2Y5_MESH_1' QUANTITY='OPTICAL DENSITY' XYZ=-2.50,-2.00,2.750000, SETPOINT=0.023, TRIP_DIRECTION=1/
&DEVC ID='DEVC_X2Y6_MESH_1' QUANTITY='OPTICAL DENSITY' XYZ=-2.50,-1.75,2.750000, SETPOINT=0.023, TRIP_DIRECTION=1/
&DEVC ID='DEVC_X2Y7_MESH_1' QUANTITY='OPTICAL DENSITY' XYZ=-2.50,-1.50,2.750000, SETPOINT=0.023, TRIP_DIRECTION=1/
&DEVC ID='DEVC_X2Y8_MESH_1' QUANTITY='OPTICAL DENSITY' XYZ=-2.50,-1.25,2.750000, SETPOINT=0.023, TRIP_DIRECTION=1/
&DEVC ID='DEVC_X2Y9_MESH_1' QUANTITY='OPTICAL DENSITY' XYZ=-2.50,-1.00,2.750000, SETPOINT=0.023, TRIP_DIRECTION=1/
&DEVC ID='DEVC_X2Y10_MESH_1' QUANTITY='OPTICAL DENSITY' XYZ=-2.50,-0.75,2.750000, SETPOINT=0.023, TRIP_DIRECTION=1/
&DEVC ID='DEVC_X2Y11_MESH_1' QUANTITY='OPTICAL DENSITY' XYZ=-2.50,-0.50,2.750000, SETPOINT=0.023, TRIP_DIRECTION=1/
&DEVC ID='DEVC_X2Y12_MESH_1' QUANTITY='OPTICAL DENSITY' XYZ=-2.50,-0.25,2.750000, SETPOINT=0.023, TRIP_DIRECTION=1/
&DEVC ID='DEVC_X2Y13_MESH_1' QUANTITY='OPTICAL DENSITY' XYZ=-2.50,0.00,2.750000, SETPOINT=0.023, TRIP_DIRECTION=1/
&DEVC ID='DEVC_X2Y14_MESH_1' QUANTITY='OPTICAL DENSITY' XYZ=-2.50,0.25,2.750000, SETPOINT=0.023, TRIP_DIRECTION=1/
&DEVC ID='DEVC_X2Y15_MESH_1' QUANTITY='OPTICAL DENSITY' XYZ=-2.50,0.50,2.750000, SETPOINT=0.023, TRIP_DIRECTION=1/
&DEVC ID='DEVC_X2Y16_MESH_1' QUANTITY='OPTICAL DENSITY' XYZ=-2.50,0.75,2.750000, SETPOINT=0.023, TRIP_DIRECTION=1/
&DEVC ID='DEVC_X2Y17_MESH_1' QUANTITY='OPTICAL DENSITY' XYZ=-2.50,1.00,2.750000, SETPOINT=0.023, TRIP_DIRECTION=1/
&DEVC ID='DEVC_X2Y18_MESH_1' QUANTITY='OPTICAL DENSITY' XYZ=-2.50,1.25,2.750000, SETPOINT=0.023, TRIP_DIRECTION=1/
&DEVC ID='DEVC_X2Y19_MESH_1' QUANTITY='OPTICAL DENSITY' XYZ=-2.50,1.50,2.750000, SETPOINT=0.023, TRIP_DIRECTION=1/
&DEVC ID='DEVC_X2Y20_MESH_1' QUANTITY='OPTICAL DENSITY' XYZ=-2.50,1.75,2.750000, SETPOINT=0.023, TRIP_DIRECTION=1/
&DEVC ID='DEVC_X3Y1_MESH_1' QUANTITY='OPTICAL DENSITY' XYZ=-2.25,-3.00,2.750000, SETPOINT=0.023, TRIP_DIRECTION=1/
&DEVC ID='DEVC_X3Y2_MESH_1' QUANTITY='OPTICAL DENSITY' XYZ=-2.25,-2.75,2.750000, SETPOINT=0.023, TRIP_DIRECTION=1/
&DEVC ID='DEVC_X3Y3_MESH_1' QUANTITY='OPTICAL DENSITY' XYZ=-2.25,-2.50,2.750000, SETPOINT=0.023, TRIP_DIRECTION=1/
&DEVC ID='DEVC_X3Y4_MESH_1' QUANTITY='OPTICAL DENSITY' XYZ=-2.25,-2.25,2.750000, SETPOINT=0.023, TRIP_DIRECTION=1/
&DEVC ID='DEVC_X3Y5_MESH_1' QUANTITY='OPTICAL DENSITY' XYZ=-2.25,-2.00,2.750000, SETPOINT=0.023, TRIP_DIRECTION=1/
&DEVC ID='DEVC_X3Y6_MESH_1' QUANTITY='OPTICAL DENSITY' XYZ=-2.25,-1.75,2.750000, SETPOINT=0.023, TRIP_DIRECTION=1/
&DEVC ID='DEVC_X3Y7_MESH_1' QUANTITY='OPTICAL DENSITY' XYZ=-2.25,-1.50,2.750000, SETPOINT=0.023, TRIP_DIRECTION=1/
&DEVC ID='DEVC_X3Y8_MESH_1' QUANTITY='OPTICAL DENSITY' XYZ=-2.25,-1.25,2.750000, SETPOINT=0.023, TRIP_DIRECTION=1/
&DEVC ID='DEVC_X3Y9_MESH_1' QUANTITY='OPTICAL DENSITY' XYZ=-2.25,-1.00,2.750000, SETPOINT=0.023, TRIP_DIRECTION=1/
&DEVC ID='DEVC_X3Y10_MESH_1' QUANTITY='OPTICAL DENSITY' XYZ=-2.25,-0.75,2.750000, SETPOINT=0.023, TRIP_DIRECTION=1/
&DEVC ID='DEVC_X3Y11_MESH_1' QUANTITY='OPTICAL DENSITY' XYZ=-2.25,-0.50,2.750000, SETPOINT=0.023, TRIP_DIRECTION=1/
&DEVC ID='DEVC_X3Y12_MESH_1' QUANTITY='OPTICAL DENSITY' XYZ=-2.25,-0.25,2.750000, SETPOINT=0.023, TRIP_DIRECTION=1/
&DEVC ID='DEVC_X3Y13_MESH_1' QUANTITY='OPTICAL DENSITY' XYZ=-2.25,0.00,2.750000, SETPOINT=0.023, TRIP_DIRECTION=1/
&DEVC ID='DEVC_X3Y14_MESH_1' QUANTITY='OPTICAL DENSITY' XYZ=-2.25,0.25,2.750000, SETPOINT=0.023, TRIP_DIRECTION=1/
&DEVC ID='DEVC_X3Y15_MESH_1' QUANTITY='OPTICAL DENSITY' XYZ=-2.25,0.50,2.750000, SETPOINT=0.023, TRIP_DIRECTION=1/
&DEVC ID='DEVC_X3Y16_MESH_1' QUANTITY='OPTICAL DENSITY' XYZ=-2.25,0.75,2.750000, SETPOINT=0.023, TRIP_DIRECTION=1/
&DEVC ID='DEVC_X3Y17_MESH_1' QUANTITY='OPTICAL DENSITY' XYZ=-2.25,1.00,2.750000, SETPOINT=0.023, TRIP_DIRECTION=1/
&DEVC ID='DEVC_X3Y18_MESH_1' QUANTITY='OPTICAL DENSITY' XYZ=-2.25,1.25,2.750000, SETPOINT=0.023, TRIP_DIRECTION=1/
&DEVC ID='DEVC_X3Y19_MESH_1' QUANTITY='OPTICAL DENSITY' XYZ=-2.25,1.50,2.750000, SETPOINT=0.023, TRIP_DIRECTION=1/
&DEVC ID='DEVC_X3Y20_MESH_1' QUANTITY='OPTICAL DENSITY' XYZ=-2.25,1.75,2.750000, SETPOINT=0.023, TRIP_DIRECTION=1/
&DEVC ID='DEVC_X4Y1_MESH_1' QUANTITY='OPTICAL DENSITY' XYZ=-2.00,-3.00,2.750000, SETPOINT=0.023, TRIP_DIRECTION=1/
&DEVC ID='DEVC_X4Y2_MESH_1' QUANTITY='OPTICAL DENSITY' XYZ=-2.00,-2.75,2.750000, SETPOINT=0.023, TRIP_DIRECTION=1/
&DEVC ID='DEVC_X4Y3_MESH_1' QUANTITY='OPTICAL DENSITY' XYZ=-2.00,-2.50,2.750000, SETPOINT=0.023, TRIP_DIRECTION=1/
&DEVC ID='DEVC_X4Y4_MESH_1' QUANTITY='OPTICAL DENSITY' XYZ=-2.00,-2.25,2.750000, SETPOINT=0.023, TRIP_DIRECTION=1/
&DEVC ID='DEVC_X4Y5_MESH_1' QUANTITY='OPTICAL DENSITY' XYZ=-2.00,-2.00,2.750000, SETPOINT=0.023, TRIP_DIRECTION=1/
&DEVC ID='DEVC_X4Y6_MESH_1' QUANTITY='OPTICAL DENSITY' XYZ=-2.00,-1.75,2.750000, SETPOINT=0.023, TRIP_DIRECTION=1/
&DEVC ID='DEVC_X4Y7_MESH_1' QUANTITY='OPTICAL DENSITY' XYZ=-2.00,-1.50,2.750000, SETPOINT=0.023, TRIP_DIRECTION=1/
&DEVC ID='DEVC_X4Y8_MESH_1' QUANTITY='OPTICAL DENSITY' XYZ=-2.00,-1.25,2.750000, SETPOINT=0.023, TRIP_DIRECTION=1/
&DEVC ID='DEVC_X4Y9_MESH_1' QUANTITY='OPTICAL DENSITY' XYZ=-2.00,-1.00,2.750000, SETPOINT=0.023, TRIP_DIRECTION=1/
&DEVC ID='DEVC_X4Y10_MESH_1' QUANTITY='OPTICAL DENSITY' XYZ=-2.00,-0.75,2.750000, SETPOINT=0.023, TRIP_DIRECTION=1/
&DEVC ID='DEVC_X4Y11_MESH_1' QUANTITY='OPTICAL DENSITY' XYZ=-2.00,-0.50,2.750000, SETPOINT=0.023, TRIP_DIRECTION=1/
&DEVC ID='DEVC_X4Y12_MESH_1' QUANTITY='OPTICAL DENSITY' XYZ=-2.00,-0.25,2.750000, SETPOINT=0.023, TRIP_DIRECTION=1/
&DEVC ID='DEVC_X4Y13_MESH_1' QUANTITY='OPTICAL DENSITY' XYZ=-2.00,0.00,2.750000, SETPOINT=0.023, TRIP_DIRECTION=1/
&DEVC ID='DEVC_X4Y14_MESH_1' QUANTITY='OPTICAL DENSITY' XYZ=-2.00,0.25,2.750000, SETPOINT=0.023, TRIP_DIRECTION=1/
&DEVC ID='DEVC_X4Y15_MESH_1' QUANTITY='OPTICAL DENSITY' XYZ=-2.00,0.50,2.750000, SETPOINT=0.023, TRIP_DIRECTION=1/
&DEVC ID='DEVC_X4Y16_MESH_1' QUANTITY='OPTICAL DENSITY' XYZ=-2.00,0.75,2.750000, SETPOINT=0.023, TRIP_DIRECTION=1/
&DEVC ID='DEVC_X4Y17_MESH_1' QUANTITY='OPTICAL DENSITY' XYZ=-2.00,1.00,2.750000, SETPOINT=0.023, TRIP_DIRECTION=1/
&DEVC ID='DEVC_X4Y18_MESH_1' QUANTITY='OPTICAL DENSITY' XYZ=-2.00,1.25,2.750000, SETPOINT=0.023, TRIP_DIRECTION=1/
&DEVC ID='DEVC_X4Y19_MESH_1' QUANTITY='OPTICAL DENSITY' XYZ=-2.00,1.50,2.750000, SETPOINT=0.023, TRIP_DIRECTION=1/
&DEVC ID='DEVC_X4Y20_MESH_1' QUANTITY='OPTICAL DENSITY' XYZ=-2.00,1.75,2.750000, SETPOINT=0.023, TRIP_DIRECTION=1/
&DEVC ID='DEVC_X5Y1_MESH_1' QUANTITY='OPTICAL DENSITY' XYZ=-1.75,-3.00,2.750000, SETPOINT=0.023, TRIP_DIRECTION=1/
&DEVC ID='DEVC_X5Y2_MESH_1' QUANTITY='OPTICAL DENSITY' XYZ=-1.75,-2.75,2.750000, SETPOINT=0.023, TRIP_DIRECTION=1/
&DEVC ID='DEVC_X5Y3_MESH_1' QUANTITY='OPTICAL DENSITY' XYZ=-1.75,-2.50,2.750000, SETPOINT=0.023, TRIP_DIRECTION=1/
&DEVC ID='DEVC_X5Y4_MESH_1' QUANTITY='OPTICAL DENSITY' XYZ=-1.75,-2.25,2.750000, SETPOINT=0.023, TRIP_DIRECTION=1/
&DEVC ID='DEVC_X5Y5_MESH_1' QUANTITY='OPTICAL DENSITY' XYZ=-1.75,-2.00,2.750000, SETPOINT=0.023, TRIP_DIRECTION=1/
&DEVC ID='DEVC_X5Y6_MESH_1' QUANTITY='OPTICAL DENSITY' XYZ=-1.75,-1.75,2.750000, SETPOINT=0.023, TRIP_DIRECTION=1/
&DEVC ID='DEVC_X5Y7_MESH_1' QUANTITY='OPTICAL DENSITY' XYZ=-1.75,-1.50,2.750000, SETPOINT=0.023, TRIP_DIRECTION=1/
&DEVC ID='DEVC_X5Y8_MESH_1' QUANTITY='OPTICAL DENSITY' XYZ=-1.75,-1.25,2.750000, SETPOINT=0.023, TRIP_DIRECTION=1/
&DEVC ID='DEVC_X5Y9_MESH_1' QUANTITY='OPTICAL DENSITY' XYZ=-1.75,-1.00,2.750000, SETPOINT=0.023, TRIP_DIRECTION=1/
&DEVC ID='DEVC_X5Y10_MESH_1' QUANTITY='OPTICAL DENSITY' XYZ=-1.75,-0.75,2.750000, SETPOINT=0.023, TRIP_DIRECTION=1/
&DEVC ID='DEVC_X5Y11_MESH_1' QUANTITY='OPTICAL DENSITY' XYZ=-1.75,-0.50,2.750000, SETPOINT=0.023, TRIP_DIRECTION=1/
&DEVC ID='DEVC_X5Y12_MESH_1' QUANTITY='OPTICAL DENSITY' XYZ=-1.75,-0.25,2.750000, SETPOINT=0.023, TRIP_DIRECTION=1/
&DEVC ID='DEVC_X5Y13_MESH_1' QUANTITY='OPTICAL DENSITY' XYZ=-1.75,0.00,2.750000, SETPOINT=0.023, TRIP_DIRECTION=1/
&DEVC ID='DEVC_X5Y14_MESH_1' QUANTITY='OPTICAL DENSITY' XYZ=-1.75,0.25,2.750000, SETPOINT=0.023, TRIP_DIRECTION=1/
&DEVC ID='DEVC_X5Y15_MESH_1' QUANTITY='OPTICAL DENSITY' XYZ=-1.75,0.50,2.750000, SETPOINT=0.023, TRIP_DIRECTION=1/
&DEVC ID='DEVC_X5Y16_MESH_1' QUANTITY='OPTICAL DENSITY' XYZ=-1.75,0.75,2.750000, SETPOINT=0.023, TRIP_DIRECTION=1/
&DEVC ID='DEVC_X5Y17_MESH_1' QUANTITY='OPTICAL DENSITY' XYZ=-1.75,1.00,2.750000, SETPOINT=0.023, TRIP_DIRECTION=1/
&DEVC ID='DEVC_X5Y18_MESH_1' QUANTITY='OPTICAL DENSITY' XYZ=-1.75,1.25,2.750000, SETPOINT=0.023, TRIP_DIRECTION=1/
&DEVC ID='DEVC_X5Y19_MESH_1' QUANTITY='OPTICAL DENSITY' XYZ=-1.75,1.50,2.750000, SETPOINT=0.023, TRIP_DIRECTION=1/
&DEVC ID='DEVC_X5Y20_MESH_1' QUANTITY='OPTICAL DENSITY' XYZ=-1.75,1.75,2.750000, SETPOINT=0.023, TRIP_DIRECTION=1/
&DEVC ID='DEVC_X6Y1_MESH_1' QUANTITY='OPTICAL DENSITY' XYZ=-1.50,-3.00,2.750000, SETPOINT=0.023, TRIP_DIRECTION=1/
&DEVC ID='DEVC_X6Y2_MESH_1' QUANTITY='OPTICAL DENSITY' XYZ=-1.50,-2.75,2.750000, SETPOINT=0.023, TRIP_DIRECTION=1/
&DEVC ID='DEVC_X6Y3_MESH_1' QUANTITY='OPTICAL DENSITY' XYZ=-1.50,-2.50,2.750000, SETPOINT=0.023, TRIP_DIRECTION=1/
&DEVC ID='DEVC_X6Y4_MESH_1' QUANTITY='OPTICAL DENSITY' XYZ=-1.50,-2.25,2.750000, SETPOINT=0.023, TRIP_DIRECTION=1/
&DEVC ID='DEVC_X6Y5_MESH_1' QUANTITY='OPTICAL DENSITY' XYZ=-1.50,-2.00,2.750000, SETPOINT=0.023, TRIP_DIRECTION=1/
&DEVC ID='DEVC_X6Y6_MESH_1' QUANTITY='OPTICAL DENSITY' XYZ=-1.50,-1.75,2.750000, SETPOINT=0.023, TRIP_DIRECTION=1/
&DEVC ID='DEVC_X6Y7_MESH_1' QUANTITY='OPTICAL DENSITY' XYZ=-1.50,-1.50,2.750000, SETPOINT=0.023, TRIP_DIRECTION=1/
&DEVC ID='DEVC_X6Y8_MESH_1' QUANTITY='OPTICAL DENSITY' XYZ=-1.50,-1.25,2.750000, SETPOINT=0.023, TRIP_DIRECTION=1/
&DEVC ID='DEVC_X6Y9_MESH_1' QUANTITY='OPTICAL DENSITY' XYZ=-1.50,-1.00,2.750000, SETPOINT=0.023, TRIP_DIRECTION=1/
&DEVC ID='DEVC_X6Y10_MESH_1' QUANTITY='OPTICAL DENSITY' XYZ=-1.50,-0.75,2.750000, SETPOINT=0.023, TRIP_DIRECTION=1/
&DEVC ID='DEVC_X6Y11_MESH_1' QUANTITY='OPTICAL DENSITY' XYZ=-1.50,-0.50,2.750000, SETPOINT=0.023, TRIP_DIRECTION=1/
&DEVC ID='DEVC_X6Y12_MESH_1' QUANTITY='OPTICAL DENSITY' XYZ=-1.50,-0.25,2.750000, SETPOINT=0.023, TRIP_DIRECTION=1/
&DEVC ID='DEVC_X6Y13_MESH_1' QUANTITY='OPTICAL DENSITY' XYZ=-1.50,0.00,2.750000, SETPOINT=0.023, TRIP_DIRECTION=1/
&DEVC ID='DEVC_X6Y14_MESH_1' QUANTITY='OPTICAL DENSITY' XYZ=-1.50,0.25,2.750000, SETPOINT=0.023, TRIP_DIRECTION=1/
&DEVC ID='DEVC_X6Y15_MESH_1' QUANTITY='OPTICAL DENSITY' XYZ=-1.50,0.50,2.750000, SETPOINT=0.023, TRIP_DIRECTION=1/
&DEVC ID='DEVC_X6Y16_MESH_1' QUANTITY='OPTICAL DENSITY' XYZ=-1.50,0.75,2.750000, SETPOINT=0.023, TRIP_DIRECTION=1/
&DEVC ID='DEVC_X6Y17_MESH_1' QUANTITY='OPTICAL DENSITY' XYZ=-1.50,1.00,2.750000, SETPOINT=0.023, TRIP_DIRECTION=1/
&DEVC ID='DEVC_X6Y18_MESH_1' QUANTITY='OPTICAL DENSITY' XYZ=-1.50,1.25,2.750000, SETPOINT=0.023, TRIP_DIRECTION=1/
&DEVC ID='DEVC_X6Y19_MESH_1' QUANTITY='OPTICAL DENSITY' XYZ=-1.50,1.50,2.750000, SETPOINT=0.023, TRIP_DIRECTION=1/
&DEVC ID='DEVC_X6Y20_MESH_1' QUANTITY='OPTICAL DENSITY' XYZ=-1.50,1.75,2.750000, SETPOINT=0.023, TRIP_DIRECTION=1/
&DEVC ID='DEVC_X7Y1_MESH_1' QUANTITY='OPTICAL DENSITY' XYZ=-1.25,-3.00,2.750000, SETPOINT=0.023, TRIP_DIRECTION=1/
&DEVC ID='DEVC_X7Y2_MESH_1' QUANTITY='OPTICAL DENSITY' XYZ=-1.25,-2.75,2.750000, SETPOINT=0.023, TRIP_DIRECTION=1/
&DEVC ID='DEVC_X7Y3_MESH_1' QUANTITY='OPTICAL DENSITY' XYZ=-1.25,-2.50,2.750000, SETPOINT=0.023, TRIP_DIRECTION=1/
&DEVC ID='DEVC_X7Y4_MESH_1' QUANTITY='OPTICAL DENSITY' XYZ=-1.25,-2.25,2.750000, SETPOINT=0.023, TRIP_DIRECTION=1/
&DEVC ID='DEVC_X7Y5_MESH_1' QUANTITY='OPTICAL DENSITY' XYZ=-1.25,-2.00,2.750000, SETPOINT=0.023, TRIP_DIRECTION=1/
&DEVC ID='DEVC_X7Y6_MESH_1' QUANTITY='OPTICAL DENSITY' XYZ=-1.25,-1.75,2.750000, SETPOINT=0.023, TRIP_DIRECTION=1/
&DEVC ID='DEVC_X7Y7_MESH_1' QUANTITY='OPTICAL DENSITY' XYZ=-1.25,-1.50,2.750000, SETPOINT=0.023, TRIP_DIRECTION=1/
&DEVC ID='DEVC_X7Y8_MESH_1' QUANTITY='OPTICAL DENSITY' XYZ=-1.25,-1.25,2.750000, SETPOINT=0.023, TRIP_DIRECTION=1/
&DEVC ID='DEVC_X7Y9_MESH_1' QUANTITY='OPTICAL DENSITY' XYZ=-1.25,-1.00,2.750000, SETPOINT=0.023, TRIP_DIRECTION=1/
&DEVC ID='DEVC_X7Y10_MESH_1' QUANTITY='OPTICAL DENSITY' XYZ=-1.25,-0.75,2.750000, SETPOINT=0.023, TRIP_DIRECTION=1/
&DEVC ID='DEVC_X7Y11_MESH_1' QUANTITY='OPTICAL DENSITY' XYZ=-1.25,-0.50,2.750000, SETPOINT=0.023, TRIP_DIRECTION=1/
&DEVC ID='DEVC_X7Y12_MESH_1' QUANTITY='OPTICAL DENSITY' XYZ=-1.25,-0.25,2.750000, SETPOINT=0.023, TRIP_DIRECTION=1/
&DEVC ID='DEVC_X7Y13_MESH_1' QUANTITY='OPTICAL DENSITY' XYZ=-1.25,0.00,2.750000, SETPOINT=0.023, TRIP_DIRECTION=1/
&DEVC ID='DEVC_X7Y14_MESH_1' QUANTITY='OPTICAL DENSITY' XYZ=-1.25,0.25,2.750000, SETPOINT=0.023, TRIP_DIRECTION=1/
&DEVC ID='DEVC_X7Y15_MESH_1' QUANTITY='OPTICAL DENSITY' XYZ=-1.25,0.50,2.750000, SETPOINT=0.023, TRIP_DIRECTION=1/
&DEVC ID='DEVC_X7Y16_MESH_1' QUANTITY='OPTICAL DENSITY' XYZ=-1.25,0.75,2.750000, SETPOINT=0.023, TRIP_DIRECTION=1/
&DEVC ID='DEVC_X7Y17_MESH_1' QUANTITY='OPTICAL DENSITY' XYZ=-1.25,1.00,2.750000, SETPOINT=0.023, TRIP_DIRECTION=1/
&DEVC ID='DEVC_X7Y18_MESH_1' QUANTITY='OPTICAL DENSITY' XYZ=-1.25,1.25,2.750000, SETPOINT=0.023, TRIP_DIRECTION=1/
&DEVC ID='DEVC_X7Y19_MESH_1' QUANTITY='OPTICAL DENSITY' XYZ=-1.25,1.50,2.750000, SETPOINT=0.023, TRIP_DIRECTION=1/
&DEVC ID='DEVC_X7Y20_MESH_1' QUANTITY='OPTICAL DENSITY' XYZ=-1.25,1.75,2.750000, SETPOINT=0.023, TRIP_DIRECTION=1/
&DEVC ID='DEVC_X8Y1_MESH_1' QUANTITY='OPTICAL DENSITY' XYZ=-1.00,-3.00,2.750000, SETPOINT=0.023, TRIP_DIRECTION=1/
&DEVC ID='DEVC_X8Y2_MESH_1' QUANTITY='OPTICAL DENSITY' XYZ=-1.00,-2.75,2.750000, SETPOINT=0.023, TRIP_DIRECTION=1/
&DEVC ID='DEVC_X8Y3_MESH_1' QUANTITY='OPTICAL DENSITY' XYZ=-1.00,-2.50,2.750000, SETPOINT=0.023, TRIP_DIRECTION=1/
&DEVC ID='DEVC_X8Y4_MESH_1' QUANTITY='OPTICAL DENSITY' XYZ=-1.00,-2.25,2.750000, SETPOINT=0.023, TRIP_DIRECTION=1/
&DEVC ID='DEVC_X8Y5_MESH_1' QUANTITY='OPTICAL DENSITY' XYZ=-1.00,-2.00,2.750000, SETPOINT=0.023, TRIP_DIRECTION=1/
&DEVC ID='DEVC_X8Y6_MESH_1' QUANTITY='OPTICAL DENSITY' XYZ=-1.00,-1.75,2.750000, SETPOINT=0.023, TRIP_DIRECTION=1/
&DEVC ID='DEVC_X8Y7_MESH_1' QUANTITY='OPTICAL DENSITY' XYZ=-1.00,-1.50,2.750000, SETPOINT=0.023, TRIP_DIRECTION=1/
&DEVC ID='DEVC_X8Y8_MESH_1' QUANTITY='OPTICAL DENSITY' XYZ=-1.00,-1.25,2.750000, SETPOINT=0.023, TRIP_DIRECTION=1/
&DEVC ID='DEVC_X8Y9_MESH_1' QUANTITY='OPTICAL DENSITY' XYZ=-1.00,-1.00,2.750000, SETPOINT=0.023, TRIP_DIRECTION=1/
&DEVC ID='DEVC_X8Y10_MESH_1' QUANTITY='OPTICAL DENSITY' XYZ=-1.00,-0.75,2.750000, SETPOINT=0.023, TRIP_DIRECTION=1/
&DEVC ID='DEVC_X8Y11_MESH_1' QUANTITY='OPTICAL DENSITY' XYZ=-1.00,-0.50,2.750000, SETPOINT=0.023, TRIP_DIRECTION=1/
&DEVC ID='DEVC_X8Y12_MESH_1' QUANTITY='OPTICAL DENSITY' XYZ=-1.00,-0.25,2.750000, SETPOINT=0.023, TRIP_DIRECTION=1/
&DEVC ID='DEVC_X8Y13_MESH_1' QUANTITY='OPTICAL DENSITY' XYZ=-1.00,0.00,2.750000, SETPOINT=0.023, TRIP_DIRECTION=1/
&DEVC ID='DEVC_X8Y14_MESH_1' QUANTITY='OPTICAL DENSITY' XYZ=-1.00,0.25,2.750000, SETPOINT=0.023, TRIP_DIRECTION=1/
&DEVC ID='DEVC_X8Y15_MESH_1' QUANTITY='OPTICAL DENSITY' XYZ=-1.00,0.50,2.750000, SETPOINT=0.023, TRIP_DIRECTION=1/
&DEVC ID='DEVC_X8Y16_MESH_1' QUANTITY='OPTICAL DENSITY' XYZ=-1.00,0.75,2.750000, SETPOINT=0.023, TRIP_DIRECTION=1/
&DEVC ID='DEVC_X8Y17_MESH_1' QUANTITY='OPTICAL DENSITY' XYZ=-1.00,1.00,2.750000, SETPOINT=0.023, TRIP_DIRECTION=1/
&DEVC ID='DEVC_X8Y18_MESH_1' QUANTITY='OPTICAL DENSITY' XYZ=-1.00,1.25,2.750000, SETPOINT=0.023, TRIP_DIRECTION=1/
&DEVC ID='DEVC_X8Y19_MESH_1' QUANTITY='OPTICAL DENSITY' XYZ=-1.00,1.50,2.750000, SETPOINT=0.023, TRIP_DIRECTION=1/
&DEVC ID='DEVC_X8Y20_MESH_1' QUANTITY='OPTICAL DENSITY' XYZ=-1.00,1.75,2.750000, SETPOINT=0.023, TRIP_DIRECTION=1/
&DEVC ID='DEVC_X9Y1_MESH_1' QUANTITY='OPTICAL DENSITY' XYZ=-0.75,-3.00,2.750000, SETPOINT=0.023, TRIP_DIRECTION=1/
&DEVC ID='DEVC_X9Y2_MESH_1' QUANTITY='OPTICAL DENSITY' XYZ=-0.75,-2.75,2.750000, SETPOINT=0.023, TRIP_DIRECTION=1/
&DEVC ID='DEVC_X9Y3_MESH_1' QUANTITY='OPTICAL DENSITY' XYZ=-0.75,-2.50,2.750000, SETPOINT=0.023, TRIP_DIRECTION=1/
&DEVC ID='DEVC_X9Y4_MESH_1' QUANTITY='OPTICAL DENSITY' XYZ=-0.75,-2.25,2.750000, SETPOINT=0.023, TRIP_DIRECTION=1/
&DEVC ID='DEVC_X9Y5_MESH_1' QUANTITY='OPTICAL DENSITY' XYZ=-0.75,-2.00,2.750000, SETPOINT=0.023, TRIP_DIRECTION=1/
&DEVC ID='DEVC_X9Y6_MESH_1' QUANTITY='OPTICAL DENSITY' XYZ=-0.75,-1.75,2.750000, SETPOINT=0.023, TRIP_DIRECTION=1/
&DEVC ID='DEVC_X9Y7_MESH_1' QUANTITY='OPTICAL DENSITY' XYZ=-0.75,-1.50,2.750000, SETPOINT=0.023, TRIP_DIRECTION=1/
&DEVC ID='DEVC_X9Y8_MESH_1' QUANTITY='OPTICAL DENSITY' XYZ=-0.75,-1.25,2.750000, SETPOINT=0.023, TRIP_DIRECTION=1/
&DEVC ID='DEVC_X9Y9_MESH_1' QUANTITY='OPTICAL DENSITY' XYZ=-0.75,-1.00,2.750000, SETPOINT=0.023, TRIP_DIRECTION=1/
&DEVC ID='DEVC_X9Y10_MESH_1' QUANTITY='OPTICAL DENSITY' XYZ=-0.75,-0.75,2.750000, SETPOINT=0.023, TRIP_DIRECTION=1/
&DEVC ID='DEVC_X9Y11_MESH_1' QUANTITY='OPTICAL DENSITY' XYZ=-0.75,-0.50,2.750000, SETPOINT=0.023, TRIP_DIRECTION=1/
&DEVC ID='DEVC_X9Y12_MESH_1' QUANTITY='OPTICAL DENSITY' XYZ=-0.75,-0.25,2.750000, SETPOINT=0.023, TRIP_DIRECTION=1/
&DEVC ID='DEVC_X9Y13_MESH_1' QUANTITY='OPTICAL DENSITY' XYZ=-0.75,0.00,2.750000, SETPOINT=0.023, TRIP_DIRECTION=1/
&DEVC ID='DEVC_X9Y14_MESH_1' QUANTITY='OPTICAL DENSITY' XYZ=-0.75,0.25,2.750000, SETPOINT=0.023, TRIP_DIRECTION=1/
&DEVC ID='DEVC_X9Y15_MESH_1' QUANTITY='OPTICAL DENSITY' XYZ=-0.75,0.50,2.750000, SETPOINT=0.023, TRIP_DIRECTION=1/
&DEVC ID='DEVC_X9Y16_MESH_1' QUANTITY='OPTICAL DENSITY' XYZ=-0.75,0.75,2.750000, SETPOINT=0.023, TRIP_DIRECTION=1/
&DEVC ID='DEVC_X9Y17_MESH_1' QUANTITY='OPTICAL DENSITY' XYZ=-0.75,1.00,2.750000, SETPOINT=0.023, TRIP_DIRECTION=1/
&DEVC ID='DEVC_X9Y18_MESH_1' QUANTITY='OPTICAL DENSITY' XYZ=-0.75,1.25,2.750000, SETPOINT=0.023, TRIP_DIRECTION=1/
&DEVC ID='DEVC_X9Y19_MESH_1' QUANTITY='OPTICAL DENSITY' XYZ=-0.75,1.50,2.750000, SETPOINT=0.023, TRIP_DIRECTION=1/
&DEVC ID='DEVC_X9Y20_MESH_1' QUANTITY='OPTICAL DENSITY' XYZ=-0.75,1.75,2.750000, SETPOINT=0.023, TRIP_DIRECTION=1/
&DEVC ID='DEVC_X10Y1_MESH_1' QUANTITY='OPTICAL DENSITY' XYZ=-0.50,-3.00,2.750000, SETPOINT=0.023, TRIP_DIRECTION=1/
&DEVC ID='DEVC_X10Y2_MESH_1' QUANTITY='OPTICAL DENSITY' XYZ=-0.50,-2.75,2.750000, SETPOINT=0.023, TRIP_DIRECTION=1/
&DEVC ID='DEVC_X10Y3_MESH_1' QUANTITY='OPTICAL DENSITY' XYZ=-0.50,-2.50,2.750000, SETPOINT=0.023, TRIP_DIRECTION=1/
&DEVC ID='DEVC_X10Y4_MESH_1' QUANTITY='OPTICAL DENSITY' XYZ=-0.50,-2.25,2.750000, SETPOINT=0.023, TRIP_DIRECTION=1/
&DEVC ID='DEVC_X10Y5_MESH_1' QUANTITY='OPTICAL DENSITY' XYZ=-0.50,-2.00,2.750000, SETPOINT=0.023, TRIP_DIRECTION=1/
&DEVC ID='DEVC_X10Y6_MESH_1' QUANTITY='OPTICAL DENSITY' XYZ=-0.50,-1.75,2.750000, SETPOINT=0.023, TRIP_DIRECTION=1/
&DEVC ID='DEVC_X10Y7_MESH_1' QUANTITY='OPTICAL DENSITY' XYZ=-0.50,-1.50,2.750000, SETPOINT=0.023, TRIP_DIRECTION=1/
&DEVC ID='DEVC_X10Y8_MESH_1' QUANTITY='OPTICAL DENSITY' XYZ=-0.50,-1.25,2.750000, SETPOINT=0.023, TRIP_DIRECTION=1/
&DEVC ID='DEVC_X10Y9_MESH_1' QUANTITY='OPTICAL DENSITY' XYZ=-0.50,-1.00,2.750000, SETPOINT=0.023, TRIP_DIRECTION=1/
&DEVC ID='DEVC_X10Y10_MESH_1' QUANTITY='OPTICAL DENSITY' XYZ=-0.50,-0.75,2.750000, SETPOINT=0.023, TRIP_DIRECTION=1/
&DEVC ID='DEVC_X10Y11_MESH_1' QUANTITY='OPTICAL DENSITY' XYZ=-0.50,-0.50,2.750000, SETPOINT=0.023, TRIP_DIRECTION=1/
&DEVC ID='DEVC_X10Y12_MESH_1' QUANTITY='OPTICAL DENSITY' XYZ=-0.50,-0.25,2.750000, SETPOINT=0.023, TRIP_DIRECTION=1/
&DEVC ID='DEVC_X10Y13_MESH_1' QUANTITY='OPTICAL DENSITY' XYZ=-0.50,0.00,2.750000, SETPOINT=0.023, TRIP_DIRECTION=1/
&DEVC ID='DEVC_X10Y14_MESH_1' QUANTITY='OPTICAL DENSITY' XYZ=-0.50,0.25,2.750000, SETPOINT=0.023, TRIP_DIRECTION=1/
&DEVC ID='DEVC_X10Y15_MESH_1' QUANTITY='OPTICAL DENSITY' XYZ=-0.50,0.50,2.750000, SETPOINT=0.023, TRIP_DIRECTION=1/
&DEVC ID='DEVC_X10Y16_MESH_1' QUANTITY='OPTICAL DENSITY' XYZ=-0.50,0.75,2.750000, SETPOINT=0.023, TRIP_DIRECTION=1/
&DEVC ID='DEVC_X10Y17_MESH_1' QUANTITY='OPTICAL DENSITY' XYZ=-0.50,1.00,2.750000, SETPOINT=0.023, TRIP_DIRECTION=1/
&DEVC ID='DEVC_X10Y18_MESH_1' QUANTITY='OPTICAL DENSITY' XYZ=-0.50,1.25,2.750000, SETPOINT=0.023, TRIP_DIRECTION=1/
&DEVC ID='DEVC_X10Y19_MESH_1' QUANTITY='OPTICAL DENSITY' XYZ=-0.50,1.50,2.750000, SETPOINT=0.023, TRIP_DIRECTION=1/
&DEVC ID='DEVC_X10Y20_MESH_1' QUANTITY='OPTICAL DENSITY' XYZ=-0.50,1.75,2.750000, SETPOINT=0.023, TRIP_DIRECTION=1/
&DEVC ID='DEVC_X11Y1_MESH_1' QUANTITY='OPTICAL DENSITY' XYZ=-0.25,-3.00,2.750000, SETPOINT=0.023, TRIP_DIRECTION=1/
&DEVC ID='DEVC_X11Y2_MESH_1' QUANTITY='OPTICAL DENSITY' XYZ=-0.25,-2.75,2.750000, SETPOINT=0.023, TRIP_DIRECTION=1/
&DEVC ID='DEVC_X11Y3_MESH_1' QUANTITY='OPTICAL DENSITY' XYZ=-0.25,-2.50,2.750000, SETPOINT=0.023, TRIP_DIRECTION=1/
&DEVC ID='DEVC_X11Y4_MESH_1' QUANTITY='OPTICAL DENSITY' XYZ=-0.25,-2.25,2.750000, SETPOINT=0.023, TRIP_DIRECTION=1/
&DEVC ID='DEVC_X11Y5_MESH_1' QUANTITY='OPTICAL DENSITY' XYZ=-0.25,-2.00,2.750000, SETPOINT=0.023, TRIP_DIRECTION=1/
&DEVC ID='DEVC_X11Y6_MESH_1' QUANTITY='OPTICAL DENSITY' XYZ=-0.25,-1.75,2.750000, SETPOINT=0.023, TRIP_DIRECTION=1/
&DEVC ID='DEVC_X11Y7_MESH_1' QUANTITY='OPTICAL DENSITY' XYZ=-0.25,-1.50,2.750000, SETPOINT=0.023, TRIP_DIRECTION=1/
&DEVC ID='DEVC_X11Y8_MESH_1' QUANTITY='OPTICAL DENSITY' XYZ=-0.25,-1.25,2.750000, SETPOINT=0.023, TRIP_DIRECTION=1/
&DEVC ID='DEVC_X11Y9_MESH_1' QUANTITY='OPTICAL DENSITY' XYZ=-0.25,-1.00,2.750000, SETPOINT=0.023, TRIP_DIRECTION=1/
&DEVC ID='DEVC_X11Y10_MESH_1' QUANTITY='OPTICAL DENSITY' XYZ=-0.25,-0.75,2.750000, SETPOINT=0.023, TRIP_DIRECTION=1/
&DEVC ID='DEVC_X11Y11_MESH_1' QUANTITY='OPTICAL DENSITY' XYZ=-0.25,-0.50,2.750000, SETPOINT=0.023, TRIP_DIRECTION=1/
&DEVC ID='DEVC_X11Y12_MESH_1' QUANTITY='OPTICAL DENSITY' XYZ=-0.25,-0.25,2.750000, SETPOINT=0.023, TRIP_DIRECTION=1/
&DEVC ID='DEVC_X11Y13_MESH_1' QUANTITY='OPTICAL DENSITY' XYZ=-0.25,0.00,2.750000, SETPOINT=0.023, TRIP_DIRECTION=1/
&DEVC ID='DEVC_X11Y14_MESH_1' QUANTITY='OPTICAL DENSITY' XYZ=-0.25,0.25,2.750000, SETPOINT=0.023, TRIP_DIRECTION=1/
&DEVC ID='DEVC_X11Y15_MESH_1' QUANTITY='OPTICAL DENSITY' XYZ=-0.25,0.50,2.750000, SETPOINT=0.023, TRIP_DIRECTION=1/
&DEVC ID='DEVC_X11Y16_MESH_1' QUANTITY='OPTICAL DENSITY' XYZ=-0.25,0.75,2.750000, SETPOINT=0.023, TRIP_DIRECTION=1/
&DEVC ID='DEVC_X11Y17_MESH_1' QUANTITY='OPTICAL DENSITY' XYZ=-0.25,1.00,2.750000, SETPOINT=0.023, TRIP_DIRECTION=1/
&DEVC ID='DEVC_X11Y18_MESH_1' QUANTITY='OPTICAL DENSITY' XYZ=-0.25,1.25,2.750000, SETPOINT=0.023, TRIP_DIRECTION=1/
&DEVC ID='DEVC_X11Y19_MESH_1' QUANTITY='OPTICAL DENSITY' XYZ=-0.25,1.50,2.750000, SETPOINT=0.023, TRIP_DIRECTION=1/
&DEVC ID='DEVC_X11Y20_MESH_1' QUANTITY='OPTICAL DENSITY' XYZ=-0.25,1.75,2.750000, SETPOINT=0.023, TRIP_DIRECTION=1/
&DEVC ID='DEVC_X12Y1_MESH_1' QUANTITY='OPTICAL DENSITY' XYZ=0.00,-3.00,2.750000, SETPOINT=0.023, TRIP_DIRECTION=1/
&DEVC ID='DEVC_X12Y2_MESH_1' QUANTITY='OPTICAL DENSITY' XYZ=0.00,-2.75,2.750000, SETPOINT=0.023, TRIP_DIRECTION=1/
&DEVC ID='DEVC_X12Y3_MESH_1' QUANTITY='OPTICAL DENSITY' XYZ=0.00,-2.50,2.750000, SETPOINT=0.023, TRIP_DIRECTION=1/
&DEVC ID='DEVC_X12Y4_MESH_1' QUANTITY='OPTICAL DENSITY' XYZ=0.00,-2.25,2.750000, SETPOINT=0.023, TRIP_DIRECTION=1/
&DEVC ID='DEVC_X12Y5_MESH_1' QUANTITY='OPTICAL DENSITY' XYZ=0.00,-2.00,2.750000, SETPOINT=0.023, TRIP_DIRECTION=1/
&DEVC ID='DEVC_X12Y6_MESH_1' QUANTITY='OPTICAL DENSITY' XYZ=0.00,-1.75,2.750000, SETPOINT=0.023, TRIP_DIRECTION=1/
&DEVC ID='DEVC_X12Y7_MESH_1' QUANTITY='OPTICAL DENSITY' XYZ=0.00,-1.50,2.750000, SETPOINT=0.023, TRIP_DIRECTION=1/
&DEVC ID='DEVC_X12Y8_MESH_1' QUANTITY='OPTICAL DENSITY' XYZ=0.00,-1.25,2.750000, SETPOINT=0.023, TRIP_DIRECTION=1/
&DEVC ID='DEVC_X12Y9_MESH_1' QUANTITY='OPTICAL DENSITY' XYZ=0.00,-1.00,2.750000, SETPOINT=0.023, TRIP_DIRECTION=1/
&DEVC ID='DEVC_X12Y10_MESH_1' QUANTITY='OPTICAL DENSITY' XYZ=0.00,-0.75,2.750000, SETPOINT=0.023, TRIP_DIRECTION=1/
&DEVC ID='DEVC_X12Y11_MESH_1' QUANTITY='OPTICAL DENSITY' XYZ=0.00,-0.50,2.750000, SETPOINT=0.023, TRIP_DIRECTION=1/
&DEVC ID='DEVC_X12Y12_MESH_1' QUANTITY='OPTICAL DENSITY' XYZ=0.00,-0.25,2.750000, SETPOINT=0.023, TRIP_DIRECTION=1/
&DEVC ID='DEVC_X12Y13_MESH_1' QUANTITY='OPTICAL DENSITY' XYZ=0.00,0.00,2.750000, SETPOINT=0.023, TRIP_DIRECTION=1/
&DEVC ID='DEVC_X12Y14_MESH_1' QUANTITY='OPTICAL DENSITY' XYZ=0.00,0.25,2.750000, SETPOINT=0.023, TRIP_DIRECTION=1/
&DEVC ID='DEVC_X12Y15_MESH_1' QUANTITY='OPTICAL DENSITY' XYZ=0.00,0.50,2.750000, SETPOINT=0.023, TRIP_DIRECTION=1/
&DEVC ID='DEVC_X12Y16_MESH_1' QUANTITY='OPTICAL DENSITY' XYZ=0.00,0.75,2.750000, SETPOINT=0.023, TRIP_DIRECTION=1/
&DEVC ID='DEVC_X12Y17_MESH_1' QUANTITY='OPTICAL DENSITY' XYZ=0.00,1.00,2.750000, SETPOINT=0.023, TRIP_DIRECTION=1/
&DEVC ID='DEVC_X12Y18_MESH_1' QUANTITY='OPTICAL DENSITY' XYZ=0.00,1.25,2.750000, SETPOINT=0.023, TRIP_DIRECTION=1/
&DEVC ID='DEVC_X12Y19_MESH_1' QUANTITY='OPTICAL DENSITY' XYZ=0.00,1.50,2.750000, SETPOINT=0.023, TRIP_DIRECTION=1/
&DEVC ID='DEVC_X12Y20_MESH_1' QUANTITY='OPTICAL DENSITY' XYZ=0.00,1.75,2.750000, SETPOINT=0.023, TRIP_DIRECTION=1/
&DEVC ID='DEVC_X13Y1_MESH_1' QUANTITY='OPTICAL DENSITY' XYZ=0.25,-3.00,2.750000, SETPOINT=0.023, TRIP_DIRECTION=1/
&DEVC ID='DEVC_X13Y2_MESH_1' QUANTITY='OPTICAL DENSITY' XYZ=0.25,-2.75,2.750000, SETPOINT=0.023, TRIP_DIRECTION=1/
&DEVC ID='DEVC_X13Y3_MESH_1' QUANTITY='OPTICAL DENSITY' XYZ=0.25,-2.50,2.750000, SETPOINT=0.023, TRIP_DIRECTION=1/
&DEVC ID='DEVC_X13Y4_MESH_1' QUANTITY='OPTICAL DENSITY' XYZ=0.25,-2.25,2.750000, SETPOINT=0.023, TRIP_DIRECTION=1/
&DEVC ID='DEVC_X13Y5_MESH_1' QUANTITY='OPTICAL DENSITY' XYZ=0.25,-2.00,2.750000, SETPOINT=0.023, TRIP_DIRECTION=1/
&DEVC ID='DEVC_X13Y6_MESH_1' QUANTITY='OPTICAL DENSITY' XYZ=0.25,-1.75,2.750000, SETPOINT=0.023, TRIP_DIRECTION=1/
&DEVC ID='DEVC_X13Y7_MESH_1' QUANTITY='OPTICAL DENSITY' XYZ=0.25,-1.50,2.750000, SETPOINT=0.023, TRIP_DIRECTION=1/
&DEVC ID='DEVC_X13Y8_MESH_1' QUANTITY='OPTICAL DENSITY' XYZ=0.25,-1.25,2.750000, SETPOINT=0.023, TRIP_DIRECTION=1/
&DEVC ID='DEVC_X13Y9_MESH_1' QUANTITY='OPTICAL DENSITY' XYZ=0.25,-1.00,2.750000, SETPOINT=0.023, TRIP_DIRECTION=1/
&DEVC ID='DEVC_X13Y10_MESH_1' QUANTITY='OPTICAL DENSITY' XYZ=0.25,-0.75,2.750000, SETPOINT=0.023, TRIP_DIRECTION=1/
&DEVC ID='DEVC_X13Y11_MESH_1' QUANTITY='OPTICAL DENSITY' XYZ=0.25,-0.50,2.750000, SETPOINT=0.023, TRIP_DIRECTION=1/
&DEVC ID='DEVC_X13Y12_MESH_1' QUANTITY='OPTICAL DENSITY' XYZ=0.25,-0.25,2.750000, SETPOINT=0.023, TRIP_DIRECTION=1/
&DEVC ID='DEVC_X13Y13_MESH_1' QUANTITY='OPTICAL DENSITY' XYZ=0.25,0.00,2.750000, SETPOINT=0.023, TRIP_DIRECTION=1/
&DEVC ID='DEVC_X13Y14_MESH_1' QUANTITY='OPTICAL DENSITY' XYZ=0.25,0.25,2.750000, SETPOINT=0.023, TRIP_DIRECTION=1/
&DEVC ID='DEVC_X13Y15_MESH_1' QUANTITY='OPTICAL DENSITY' XYZ=0.25,0.50,2.750000, SETPOINT=0.023, TRIP_DIRECTION=1/
&DEVC ID='DEVC_X13Y16_MESH_1' QUANTITY='OPTICAL DENSITY' XYZ=0.25,0.75,2.750000, SETPOINT=0.023, TRIP_DIRECTION=1/
&DEVC ID='DEVC_X13Y17_MESH_1' QUANTITY='OPTICAL DENSITY' XYZ=0.25,1.00,2.750000, SETPOINT=0.023, TRIP_DIRECTION=1/
&DEVC ID='DEVC_X13Y18_MESH_1' QUANTITY='OPTICAL DENSITY' XYZ=0.25,1.25,2.750000, SETPOINT=0.023, TRIP_DIRECTION=1/